test/test_files/validation_tests/case2746wp_res.m
function mpc = case2746wp_res
%CASE2746WP_RES

%% MATPOWER Case Format : Version 2
mpc.version = '2';

%%-----  Power Flow Data  -----%%
%% system MVA base
mpc.baseMVA = 100;

%% bus data
%	bus_i	type	Pd	Qd	Gs	Bs	area	Vm	Va	baseKV	zone	Vmax	Vmin	lam_P	lam_Q	mu_Vmax	mu_Vmin
mpc.bus = [
	1	1	0	0	0	0	1	1.08040682	-0.64019044	220	1	1.11	0.95	98.3658	0.1938	0.0000	0.0000;
	2	1	0	0	0	0	1	1.08111311	1.26469438	220	1	1.11	0.95	97.9988	0.1556	0.0000	0.0000;
	3	1	0	0	0	0	1	1.04905515	-27.5170634	220	1	1.11	0.95	113.5931	0.8243	0.0000	0.0000;
	4	1	0	0	0	0	1	1.05917989	-6.29729438	220	1	1.11	0.95	101.3462	0.7470	0.0000	0.0000;
	5	1	0	0	0	0	1	1.05922982	-6.29981751	220	1	1.11	0.95	101.3481	0.7457	0.0000	0.0000;
	6	1	0	0	0	0	1	1.03607845	-18.4376851	220	1	1.11	0.95	106.5828	1.2223	0.0000	0.0000;
	7	1	0	0	0	0	1	1.03625502	-18.4293416	220	1	1.11	0.95	106.5743	1.2187	0.0000	0.0000;
	8	1	0	0	0	0	1	1.01000934	-13.9635519	400	1	1.05	0.95	105.2553	0.6873	0.0000	0.0000;
	9	1	0	0	0	0	1	1.01003754	-13.9589249	400	1	1.05	0.95	105.2527	0.6857	0.0000	0.0000;
	10	1	0	0	0	0	1	1.01422059	-18.4151024	220	1	1.11	0.95	107.7378	1.8165	0.0000	0.0000;
	11	1	0	0	0	0	1	1.01411095	-18.3998524	220	1	1.11	0.95	107.7369	1.8191	0.0000	0.0000;
	12	1	0	0	0	0	1	1.01415934	-18.3900929	220	1	1.11	0.95	107.7347	1.8184	0.0000	0.0000;
	13	1	0	0	0	0	1	1.00780428	-12.1192283	400	1	1.05	0.95	104.4075	1.0389	0.0000	0.0000;
	14	1	0	0	0	0	1	1.0078598	-12.1087545	400	1	1.05	0.95	104.4018	1.0365	0.0000	0.0000;
	15	1	0	0	0	0	1	1.00815888	-17.1835347	400	1	1.05	0.95	106.1196	0.0526	0.0000	0.0000;
	16	1	0	0	0	0	1	1.00815888	-17.1835347	400	1	1.05	0.95	106.1196	0.0526	0.0000	0.0000;
	17	2	11	40	0	0	1	1.09088	-22.3410885	220	1	1.11	0.95	109.5314	0.0007	0.0000	0.0000;
	18	2	14	40	0	0	1	1.09091	-22.33939	220	1	1.11	0.95	109.5301	0.0000	0.0000	0.0203;
	19	1	0	0	0	0	1	1.06537881	-5.10303696	220	1	1.11	0.95	100.6721	0.6066	0.0000	0.0000;
	20	1	0	0	0	0	1	1.06541902	-5.10186094	220	1	1.11	0.95	100.6736	0.6058	0.0000	0.0000;
	21	1	0	0	0	0	1	1.03526881	-19.9865611	220	1	1.11	0.95	108.3430	1.3062	0.0000	0.0000;
	22	1	0	0	0	0	1	1.03519454	-19.9884823	220	1	1.11	0.95	108.3441	1.3075	0.0000	0.0000;
	23	1	0	0	0	0	1	1.01716368	-18.2704446	220	1	1.11	0.95	107.6600	1.7291	0.0000	0.0000;
	24	1	0	0	0	0	1	1.06895635	-2.89895349	220	1	1.11	0.95	99.8073	0.5296	0.0000	0.0000;
	25	1	0	0	0	0	1	1.00315966	-14.4675774	400	1	1.05	0.95	105.4805	0.4745	0.0000	0.0000;
	26	2	46.738	72.054	0	0	1	1.09091	-0.266215977	220	1	1.11	0.95	98.1840	0.0000	1871.2524	0.0000;
	27	2	85.493	122.06	0	0	1	1.09091	1.52270145	220	1	1.11	0.95	97.8808	0.0000	2497.9903	0.0000;
	28	3	60	110	0	0	1	1.0325	0	400	1	1.05	0.95	98.8168	-0.1638	0.0000	0.0000;
	29	2	60.097	90	0	0	1	1.0325	0.00599780833	400	1	1.05	0.95	98.8125	-0.1626	0.0000	0.0000;
	30	1	0	0	0	0	1	1.02253603	-19.2505802	220	1	1.11	0.95	108.2832	1.5095	0.0000	0.0000;
	31	1	0	0	0	0	1	1.0314205	-1.48533228	400	1	1.05	0.95	98.9272	-0.4853	0.0000	0.0000;
	32	1	0	0	0	0	1	1.01155484	-18.7738878	220	1	1.11	0.95	107.9744	1.8681	0.0000	0.0000;
	33	1	0	0	0	0	1	1.06896286	-2.89782835	220	1	1.11	0.95	99.8069	0.5295	0.0000	0.0000;
	34	1	0	0	0	0	1	1.06576657	-9.87880779	220	1	1.11	0.95	103.0266	0.5256	0.0000	0.0000;
	35	1	0	0	0	0	1	1.07594304	-13.6798335	220	2	1.11	0.95	104.6817	0.0239	0.0000	0.0000;
	36	1	0	0	0	0	1	1.0798473	-13.3299378	220	2	1.11	0.95	104.6851	-0.0233	0.0000	0.0000;
	37	1	0	0	0	0	1	1.08566955	-11.5614956	220	2	1.11	0.95	103.5611	-0.0732	0.0000	0.0000;
	38	1	0	0	0	0	1	1.0856586	-11.5659373	220	2	1.11	0.95	103.5634	-0.0730	0.0000	0.0000;
	39	1	0	0	0	0	1	1.06453811	-16.6337325	220	2	1.11	0.95	106.6792	-0.1631	0.0000	0.0000;
	40	1	0	0	0	0	1	1.08835956	-9.74248665	220	2	1.11	0.95	102.8022	-0.2150	0.0000	0.0000;
	41	1	0	0	0	0	1	1.08832114	-9.74068808	220	2	1.11	0.95	102.8019	-0.2146	0.0000	0.0000;
	42	1	0	0	0	0	1	1.02987016	-10.1051105	400	2	1.05	0.95	102.8310	-0.3182	0.0000	0.0000;
	43	2	11.436	0	0	0	1	1.09091	-10.1748408	220	2	1.11	0.95	102.8898	0.0019	0.0000	0.0000;
	44	2	24	0	0	0	1	1.09096	-10.1465672	220	2	1.11	0.95	102.8801	0.0000	1267.4360	0.0000;
	45	2	20	0	0	0	1	1.0325	-10.9484036	400	2	1.05	0.95	103.5574	0.0000	0.0000	0.0000;
	46	1	0	0	0	0	1	1.03252494	-10.9501369	400	2	1.05	0.95	103.5562	-0.0017	0.0000	0.0000;
	47	1	0	0	0	0	1	1.08442948	-10.3515032	220	2	1.11	0.95	103.2216	-0.1332	0.0000	0.0000;
	48	1	0	0	0	0	1	1.02080229	-16.013959	400	2	1.05	0.95	104.6752	-0.3477	0.0000	0.0000;
	49	1	0	0	0	0	1	1.02076879	-16.0231927	400	2	1.05	0.95	104.6797	-0.3469	0.0000	0.0000;
	50	1	0	0	0	0	1	1.03449189	-12.1397768	400	2	1.05	0.95	103.9640	-0.4380	2649.8675	0.0000;
	51	1	0	0	0	0	1	1.07195996	-15.4471927	220	2	1.11	0.95	106.0233	-0.1063	0.0000	0.0000;
	52	1	0	0	0	0	1	1.07194698	-15.4468512	220	2	1.11	0.95	106.0243	-0.1064	0.0000	0.0000;
	53	1	0	0	0	0	1	1.03010713	-11.5986176	400	2	1.05	0.95	103.5431	-0.2198	0.0000	0.0000;
	54	1	0	0	0	0	1	1.0301149	-11.5970083	400	2	1.05	0.95	103.5419	-0.2206	0.0000	0.0000;
	55	2	12	0	0	0	1	1.09121	-9.82165653	220	2	1.11	0.95	102.6793	-0.1306	0.0000	0.0000;
	56	2	11.436	0	0	0	1	1.09115	-9.81873352	220	2	1.11	0.95	102.6756	-0.1282	0.0000	0.0000;
	57	2	12	0	0	0	1	1.03336	-10.5582259	400	2	1.05	0.95	102.9624	-0.4555	0.0000	0.0000;
	58	2	11.436	0	0	0	1	1.03337	-10.5632165	400	2	1.05	0.95	102.9649	-0.4554	0.0000	0.0000;
	59	2	167.518	60	0	0	1	1.08415	-11.72659	220	2	1.11	0.95	103.6382	0.0447	0.0000	0.0000;
	60	1	0	0	0	0	1	1.08416676	-11.7267486	220	2	1.11	0.95	103.6376	0.0440	0.0000	0.0000;
	61	1	0	0	0	0	1	1.08546868	-10.5247557	220	2	1.11	0.95	103.1603	-0.1600	0.0000	0.0000;
	62	1	0	0	0	0	1	1.08467569	-11.446533	220	2	1.11	0.95	103.6562	0.0311	0.0000	0.0000;
	63	1	0	0	0	0	1	1.08467071	-11.4498631	220	2	1.11	0.95	103.6568	0.0317	0.0000	0.0000;
	64	1	0	0	0	0	1	1.0335542	-12.1774707	400	2	1.05	0.95	103.3469	-0.6450	0.0000	0.0000;
	65	1	0	0	0	0	1	1.03353277	-12.1898214	400	2	1.05	0.95	103.3508	-0.6455	0.0000	0.0000;
	66	1	0	0	0	0	1	1.07880648	-13.2138228	220	2	1.11	0.95	104.3236	-0.0107	0.0000	0.0000;
	67	1	0	0	0	0	1	1.0804796	-12.9533989	220	2	1.11	0.95	104.1800	-0.0365	0.0000	0.0000;
	68	1	0	0	0	0	1	1.07269053	-14.9300889	220	2	1.11	0.95	105.8181	-0.0576	0.0000	0.0000;
	69	1	0	0	0	0	1	1.08410343	-4.64174366	220	3	1.11	0.95	100.1491	-0.1679	0.0000	0.0000;
	70	1	7.123	0	0	0	1	1.08261165	-10.0834094	220	3	1.11	0.95	103.0168	0.0335	0.0000	0.0000;
	71	1	8.31	0.933	0	0	1	1.08258548	-10.0862312	220	3	1.11	0.95	103.0192	0.0343	0.0000	0.0000;
	72	1	0	0	0	0	1	1.08496323	-4.47561655	220	3	1.11	0.95	99.8543	0.0998	0.0000	0.0000;
	73	1	0	0	0	0	1	1.08504233	-4.46639555	220	3	1.11	0.95	99.8509	0.0987	0.0000	0.0000;
	74	1	0	0	0	0	1	1.08305271	-4.93309818	220	3	1.11	0.95	100.0408	0.1135	0.0000	0.0000;
	75	1	0	0	0	0	1	1.08300952	-4.93730715	220	3	1.11	0.95	100.0426	0.1140	0.0000	0.0000;
	76	1	0	0	0	0	1	1.08892512	-3.52779922	220	3	1.11	0.95	99.5287	0.0371	0.0000	0.0000;
	77	1	0	0	0	0	1	1.08887539	-3.53600673	220	3	1.11	0.95	99.5330	0.0382	0.0000	0.0000;
	78	2	27	70	0	0	1	1.09091	-3.85435349	220	3	1.11	0.95	99.5068	0.0000	748.3478	0.0000;
	79	2	9	21	0	0	1	1.09034	-4.03657403	220	3	1.11	0.95	99.6306	0.0011	0.0000	0.0000;
	80	1	10.328	2.61	0	0	1	1.0776822	-5.30651935	220	3	1.11	0.95	100.4225	0.2765	0.0000	0.0000;
	81	1	0	0	0	0	1	1.07769485	-5.3051404	220	3	1.11	0.95	100.4220	0.2763	0.0000	0.0000;
	82	2	35	108	0	0	1	1.02993	-3.78520448	400	3	1.05	0.95	99.2008	0.0000	0.0000	0.0000;
	83	1	0	0	0	0	1	1.07842067	-6.71427566	220	3	1.11	0.95	100.5192	0.3124	0.0000	0.0000;
	84	1	0	0	0	0	1	1.08667967	-4.04750648	220	3	1.11	0.95	99.4386	0.0554	0.0000	0.0000;
	85	1	0	0	0	0	1	1.08667074	-4.04954562	220	3	1.11	0.95	99.4405	0.0558	0.0000	0.0000;
	86	1	37.893	12.351	0	0	1	1.08525864	-4.51041688	220	3	1.11	0.95	99.9812	-0.1367	0.0000	0.0000;
	87	1	0	0	0	0	1	1.08523246	-4.51659839	220	3	1.11	0.95	99.9832	-0.1370	0.0000	0.0000;
	88	1	0	0	0	0	1	1.08713659	-4.0243567	220	3	1.11	0.95	99.3740	0.0877	0.0000	0.0000;
	89	1	0	0	0	0	1	1.08711216	-4.02574431	220	3	1.11	0.95	99.3753	0.0883	0.0000	0.0000;
	90	1	0	0	0	0	1	1.0882383	-4.05063259	220	3	1.11	0.95	99.7690	-0.1565	0.0000	0.0000;
	91	1	0	0	0	0	1	1.08821341	-4.05637895	220	3	1.11	0.95	99.7716	-0.1564	0.0000	0.0000;
	92	1	0	0	0	0	1	1.03125379	-2.36223237	400	3	1.05	0.95	99.4873	-0.2606	0.0000	0.0000;
	93	1	0	0	0	0	1	1.03125922	-2.36416694	400	3	1.05	0.95	99.4875	-0.2610	0.0000	0.0000;
	94	1	0	0	0	0	1	1.08940458	-3.76942498	220	3	1.11	0.95	99.0458	0.0213	0.0000	0.0000;
	95	1	0	0	0	0	1	1.08940559	-3.76833572	220	3	1.11	0.95	99.0452	0.0211	0.0000	0.0000;
	96	1	0	0	0	0	1	1.0823322	-5.75697515	220	3	1.11	0.95	100.2120	0.1872	0.0000	0.0000;
	97	1	0	0	0	0	1	1.08232265	-5.76176482	220	3	1.11	0.95	100.2128	0.1879	0.0000	0.0000;
	98	1	16.027	7.274	0	0	1	1.08805654	-4.8404159	220	3	1.11	0.95	100.0477	-0.0303	0.0000	0.0000;
	99	1	7.764	0.258	0	0	1	1.08805547	-4.84568854	220	3	1.11	0.95	100.0498	-0.0308	0.0000	0.0000;
	100	1	0	0	0	0	1	1.08266867	-10.0666185	220	3	1.11	0.95	103.0080	0.0336	0.0000	0.0000;
	101	1	0	0	0	0	1	1.08264423	-10.0662684	220	3	1.11	0.95	103.0072	0.0341	0.0000	0.0000;
	102	1	0	0	0	0	1	1.08219921	-4.62425673	220	3	1.11	0.95	100.1615	0.1646	0.0000	0.0000;
	103	1	0	0	0	0	1	1.08211522	-4.63464054	220	3	1.11	0.95	100.1660	0.1662	0.0000	0.0000;
	104	2	14	40	0	0	1	1.09091	-3.47701155	220	3	1.11	0.95	99.0705	0.0000	851.4354	0.0000;
	105	2	14	40	0	0	1	1.09091	-3.47739504	220	3	1.11	0.95	99.0679	0.0010	0.0000	0.0000;
	106	2	7	18	0	0	1	1.09091	-3.71481202	220	3	1.11	0.95	99.1312	-0.0000	0.0000	0.0000;
	107	2	8	15	0	0	1	1.09091	-3.71473428	220	3	1.11	0.95	99.1331	0.0009	0.0000	0.0000;
	108	1	1.044	0	0	0	1	1.08739221	-5.34648875	220	3	1.11	0.95	100.3152	-0.0853	0.0000	0.0000;
	109	1	1.259	0	0	0	1	1.08742215	-5.35321852	220	3	1.11	0.95	100.3166	-0.0846	0.0000	0.0000;
	110	1	0	0	0	0	1	1.08450241	-6.6061416	220	3	1.11	0.95	101.1866	0.0199	0.0000	0.0000;
	111	1	0	0	0	0	1	1.07499614	-5.35824702	220	3	1.11	0.95	100.4766	0.3798	0.0000	0.0000;
	112	1	0	0	0	0	1	1.075016	-5.35797121	220	3	1.11	0.95	100.4764	0.3794	0.0000	0.0000;
	113	1	0	0	0	0	1	1.07847537	-5.20819466	220	3	1.11	0.95	100.3684	0.2578	0.0000	0.0000;
	114	1	0	0	0	0	1	1.07855733	-5.19788882	220	3	1.11	0.95	100.3643	0.2564	0.0000	0.0000;
	115	1	0	0	0	0	1	1.03132647	-6.18071102	400	3	1.05	0.95	100.4302	-1.3328	0.0000	0.0000;
	116	2	0	0	0	0	1	1.09041404	-4.54606214	220	3	1.11	0.95	99.8878	0.0005	0.0000	0.0000;
	117	2	8	15	0	0	1	1.09046	-4.53908089	220	3	1.11	0.95	99.8858	0.0000	0.0000	0.0000;
	118	2	5.5	10	0	0	1	1.089	-5.91115049	220	3	1.11	0.95	100.8745	-0.0648	0.0000	0.0000;
	119	1	0	0	0	0	1	1.08895024	-5.92345713	220	3	1.11	0.95	100.8794	-0.0642	0.0000	0.0000;
	120	1	0	0	0	0	1	1.0354196	-10.7508761	400	3	1.05	0.95	102.8601	-0.8607	0.0000	0.0000;
	121	1	0	0	0	0	1	1.0354611	-10.7428183	400	3	1.05	0.95	102.8559	-0.8627	0.0000	0.0000;
	122	1	0	0	0	0	1	1.03742112	-6.38476245	400	3	1.05	0.95	100.5772	-2.3753	0.0000	0.0000;
	123	1	0	0	0	0	1	1.03742962	-6.37925355	400	3	1.05	0.95	100.5753	-2.3844	29819.5951	0.0000;
	124	1	0	0	0	0	1	1.08453385	-6.71588297	220	3	1.11	0.95	101.3365	-0.0037	0.0000	0.0000;
	125	2	18.343	21.865	0	0	1	1.09091	-4.10879532	220	3	1.11	0.95	99.5430	0.0000	0.0000	0.0000;
	126	2	28.469	34.292	0	0	1	1.09082	-4.11030334	220	3	1.11	0.95	99.5460	0.0025	0.0000	0.0000;
	127	2	28	66	0	0	1	1.02869	-5.31048254	400	3	1.05	0.95	100.0312	-0.6133	0.0000	0.0000;
	128	1	0	0	0	0	1	1.02870912	-5.31308552	400	3	1.05	0.95	100.0321	-0.6163	0.0000	0.0000;
	129	1	0	0	0	0	1	1.08460673	-4.63876579	220	3	1.11	0.95	100.0378	-0.1398	0.0000	0.0000;
	130	1	0	0	0	0	1	1.08464424	-4.63500185	220	3	1.11	0.95	100.0349	-0.1397	0.0000	0.0000;
	131	1	0	0	0	0	1	1.08667472	-4.31561255	220	3	1.11	0.95	99.8703	-0.1381	0.0000	0.0000;
	132	2	3	18	0	0	1	1.09091	-2.78551969	220	3	1.11	0.95	99.1843	0.0000	860.4661	0.0000;
	133	2	2	6	0	0	1	1.09091	-3.17245265	220	3	1.11	0.95	99.3612	0.0000	428.7704	0.0000;
	134	2	15.447	12.88	0	0	1	1.08882	-11.190372	220	4	1.11	0.95	103.4466	0.0000	532.4155	0.0000;
	135	2	5.255	-0.357	0	0	1	1.0886614	-11.2001432	220	4	1.11	0.95	103.4495	0.0024	0.0000	0.0000;
	136	1	0	0	0	0	1	1.05400546	-13.5246498	220	4	1.11	0.95	102.4302	0.8590	0.0000	0.0000;
	137	1	0	0	0	0	1	1.06246185	-11.6389003	220	4	1.11	0.95	101.2356	0.6887	0.0000	0.0000;
	138	1	0	0	0	0	1	0.994724785	-10.2918579	400	4	1.05	0.95	101.1353	0.6360	0.0000	0.0000;
	139	1	0	0	0	0	1	0.994742476	-10.2932541	400	4	1.05	0.95	101.1362	0.6358	0.0000	0.0000;
	140	1	0	0	0	0	1	1.07136627	-22.4159227	220	4	1.11	0.95	110.4019	0.4199	0.0000	0.0000;
	141	1	0	0	0	0	1	1.07331317	-29.0064849	220	4	1.11	0.95	114.1140	0.4044	0.0000	0.0000;
	142	1	0	0	0	0	1	1.07331317	-29.0064849	220	4	1.11	0.95	114.1140	0.4044	0.0000	0.0000;
	143	1	0	0	0	0	1	1.0783347	-25.8952883	220	4	1.11	0.95	111.2129	0.8957	0.0000	0.0000;
	144	1	0	0	0	0	1	1.06487671	-14.0122587	220	4	1.11	0.95	101.8406	0.4787	0.0000	0.0000;
	145	1	0	0	0	0	1	1.06487671	-14.0122587	220	4	1.11	0.95	101.8406	0.4787	0.0000	0.0000;
	146	2	10.954	-0.465	0	0	1	1.09012	-14.129612	220	4	1.11	0.95	104.8461	0.0247	0.0000	0.0000;
	147	2	10.812	-0.465	0	0	1	1.09009355	-14.1406166	220	4	1.11	0.95	104.8485	0.0260	0.0000	0.0000;
	148	2	11.5	6.86	0	0	1	1.09091	-26.7516744	220	4	1.11	0.95	112.2754	0.0000	1722.1892	0.0000;
	149	1	1.634	3.038	0	0	1	1.09098097	-26.7468421	220	4	1.11	0.95	112.2713	0.0006	0.0000	0.0000;
	150	2	8.087	-0.38	0	0	1	1.03246	-23.2402931	400	4	1.05	0.95	111.2998	-0.2377	0.0000	0.0000;
	151	2	16.174	-0.76	0	0	1	1.0325	-23.2361129	400	4	1.05	0.95	111.2966	-0.2386	0.0000	0.0000;
	152	1	0	0	0	0	1	1.03712388	-22.5984712	220	4	1.11	0.95	111.0636	1.8396	0.0000	0.0000;
	153	1	0	0	0	0	1	1.05437209	-21.1585885	220	4	1.11	0.95	108.1496	1.8476	0.0000	0.0000;
	154	1	0	0	0	0	1	1.05445368	-21.1519568	220	4	1.11	0.95	108.1448	1.8458	0.0000	0.0000;
	155	2	30.555	-3.555	0	0	1	1.09091	-7.33102664	220	4	1.11	0.95	98.9764	0.0000	6606.4137	0.0000;
	156	2	14.679	-3.566	0	0	1	1.09091	-8.48067923	220	4	1.11	0.95	99.5878	0.0000	8240.7403	0.0000;
	157	1	0	0	0	0	1	1.09091	-7.33102664	220	4	1.11	0.95	98.9764	0.0000	0.0000	0.0000;
	158	1	0	0	0	0	1	1.00532992	-6.91139948	400	4	1.05	0.95	99.4370	0.1499	0.0000	0.0000;
	159	2	7.385	-1.783	0	0	1	1.00535	-6.90559113	400	4	1.05	0.95	99.4353	0.1487	0.0000	0.0000;
	160	1	0	0	0	0	1	1.07166554	-29.2247828	220	4	1.11	0.95	114.3792	0.4216	0.0000	0.0000;
	161	1	0	0	0	0	1	1.07166554	-29.2247828	220	4	1.11	0.95	114.3792	0.4216	0.0000	0.0000;
	162	1	0	0	0	0	1	0.993632801	-11.2830742	400	4	1.05	0.95	101.7681	0.8220	0.0000	0.0000;
	163	1	0	0	0	0	1	1.00166055	-9.6712255	400	4	1.05	0.95	101.0197	0.5666	0.0000	0.0000;
	164	1	0	0	0	0	1	1.00164974	-9.67354465	400	4	1.05	0.95	101.0201	0.5666	0.0000	0.0000;
	165	2	4.293	-8.964	0	0	1	1.09084	-14.2339192	220	4	1.11	0.95	104.8666	0.0000	2151.3956	0.0000;
	166	2	23.077	7.176	0	0	1	1.09091	-14.2535862	220	4	1.11	0.95	104.8772	0.0020	0.0000	0.0000;
	167	1	0	0	0	0	1	1.09084	-14.2339192	220	4	1.11	0.95	104.8666	0.0000	0.0000	0.0000;
	168	1	0	0	0	0	1	1.06723695	-27.5015349	220	4	1.11	0.95	113.8019	0.1600	0.0000	0.0000;
	169	1	0	0	0	0	1	1.07245785	-29.1228807	220	4	1.11	0.95	114.2024	0.4189	0.0000	0.0000;
	170	1	0	0	0	0	1	1.06637632	-23.4247049	220	4	1.11	0.95	111.1430	0.5568	0.0000	0.0000;
	171	1	0	0	0	0	1	1.06628437	-23.4179402	220	4	1.11	0.95	111.1408	0.5584	0.0000	0.0000;
	172	1	0	0	0	0	1	0.990081944	-24.5127219	400	4	1.05	0.95	111.4856	0.4789	0.0000	0.0000;
	173	1	0	0	0	0	1	0.990081944	-24.5127219	400	4	1.05	0.95	111.4856	0.4789	0.0000	0.0000;
	174	1	0	0	0	0	1	1.02744612	-18.6990352	220	4	1.11	0.95	107.7998	2.5845	0.0000	0.0000;
	175	1	0	0	0	0	1	1.02745498	-18.6917865	220	4	1.11	0.95	107.7990	2.5843	0.0000	0.0000;
	176	1	0	0	0	0	1	1.06421535	-23.9707844	220	4	1.11	0.95	111.4317	0.5802	0.0000	0.0000;
	177	1	0	0	0	0	1	1.05988408	-13.0033726	220	4	1.11	0.95	102.1816	0.7107	0.0000	0.0000;
	178	1	0	0	0	0	1	1.05992763	-12.9968952	220	4	1.11	0.95	102.1813	0.7101	0.0000	0.0000;
	179	1	0	0	0	0	1	1.0612472	-12.4445699	220	4	1.11	0.95	102.2825	0.6845	0.0000	0.0000;
	180	1	0	0	0	0	1	1.0612472	-12.4445699	220	4	1.11	0.95	102.2825	0.6845	0.0000	0.0000;
	181	1	0	0	0	0	1	1.02488389	-20.2973897	220	4	1.11	0.95	108.4654	2.6634	0.0000	0.0000;
	182	1	0	0	0	0	1	1.04178213	-22.7438778	220	5	1.11	0.95	109.5467	-0.0766	0.0000	0.0000;
	183	1	0	0	0	0	1	1.11249113	-24.5243992	220	5	1.11	0.95	110.9010	-1.5077	3341.3081	0.0000;
	184	1	0	0	0	0	1	1.04016683	-22.7904375	400	5	1.05	0.95	110.5637	-0.5762	0.0000	0.0000;
	185	1	0	0	0	0	1	1.04018472	-22.7948685	400	5	1.05	0.95	110.5665	-0.5760	0.0000	0.0000;
	186	1	0	0	0	0	1	1.02226155	-22.2715824	400	5	1.05	0.95	109.9911	0.0207	0.0000	0.0000;
	187	1	0	0	0	0	1	1.02228855	-22.2757789	400	5	1.05	0.95	109.9940	0.0207	0.0000	0.0000;
	188	1	0	0	0	0	1	1.02246298	-26.1052888	220	5	1.11	0.95	112.0495	0.4732	0.0000	0.0000;
	189	1	0	0	0	0	1	1.02254225	-26.1068267	220	5	1.11	0.95	112.0501	0.4725	0.0000	0.0000;
	190	1	0	0	0	0	1	1.06597802	-23.5994929	220	5	1.11	0.95	109.8131	-0.4616	0.0000	0.0000;
	191	1	0	0	0	0	1	1.06586737	-23.6010222	220	5	1.11	0.95	109.8138	-0.4625	0.0000	0.0000;
	192	1	0	0	0	0	1	0.986832587	-20.8258036	400	5	1.05	0.95	108.9619	0.0646	0.0000	0.0000;
	193	1	0	0	0	0	1	1.04992688	-21.9098859	220	5	1.11	0.95	109.2100	0.0979	0.0000	0.0000;
	194	1	0	0	0	0	1	1.04999605	-21.9059821	220	5	1.11	0.95	109.2090	0.0981	0.0000	0.0000;
	195	1	0	0	0	0	1	1.00910561	-24.2454164	400	5	1.05	0.95	111.1787	0.1111	0.0000	0.0000;
	196	1	0	0	0	0	1	1.00905173	-24.2503674	400	5	1.05	0.95	111.1820	0.1117	0.0000	0.0000;
	197	1	0	0	0	0	1	1.05420956	-26.7755522	220	5	1.11	0.95	112.6796	0.3221	0.0000	0.0000;
	198	1	0	0	0	0	1	1.05424639	-26.7686686	220	5	1.11	0.95	112.6765	0.3220	0.0000	0.0000;
	199	1	0	0	0	0	1	1.04432355	-20.8887157	400	5	1.05	0.95	109.5722	-0.3075	0.0000	0.0000;
	200	1	0	0	0	0	1	1.04433773	-20.8832653	400	5	1.05	0.95	109.5718	-0.3087	0.0000	0.0000;
...
];

%% generator data
%	bus	Pg	Qg	Qmax	Qmin	Vg	mBase	status	Pmax	Pmin	Pc1	Pc2	Qc1min	Qc1max	Qc2min	Qc2max	ramp_agc	ramp_10	ramp_30	ramp_q	apf	mu_Pmax	mu_Pmin	mu_Qmax	mu_Qmin
mpc.gen = [
	17	140	125.573309	120	-10	1.09088	233.2	1	200	140	0	0	0	0	0	0	0	0	0	0	0	0.0000	3.2486	0.0007	0.0000;
	18	140	74.0555149	120	-10	1.09091	233.2	1	200	140	0	0	0	0	0	0	0	0	0	0	0	0.0000	3.2499	0.0000	0.0000;
	26	370	105.716586	220	-10	1.09091	430.5	1	370	290	0	0	0	0	0	0	0	0	0	0	0	22.0840	0.0000	0.0000	0.0000;
	26	360	105.716586	220	-10	1.09091	421.9	1	360	290	0	0	0	0	0	0	0	0	0	0	0	22.0840	0.0000	0.0000	0.0000;
	27	360	91.2884523	220	-10	1.09091	421.9	1	360	290	0	0	0	0	0	0	0	0	0	0	0	21.7808	0.0000	0.0000	0.0000;
	27	370	91.2884523	220	-10	1.09091	430.5	1	370	290	0	0	0	0	0	0	0	0	0	0	0	21.7808	0.0000	0.0000	0.0000;
	27	370	91.2884523	220	-10	1.09091	430.5	1	370	290	0	0	0	0	0	0	0	0	0	0	0	21.7808	0.0000	0.0000	0.0000;
	28	391.196608	19.1007849	220	-10	1.0325	430.5	1	370	290	0	0	0	0	0	0	0	0	0	0	0	22.7168	0.0000	0.0000	0.1638;
	28	370	19.1007849	220	-10	1.0325	430.5	1	370	290	0	0	0	0	0	0	0	0	0	0	0	22.7168	0.0000	0.0000	0.1638;
	28	370	19.1007849	220	-10	1.0325	430.5	1	370	290	0	0	0	0	0	0	0	0	0	0	0	22.7168	0.0000	0.0000	0.1638;
	29	370	12.9146407	220	-10	1.0325	430.5	1	370	290	0	0	0	0	0	0	0	0	0	0	0	22.7125	0.0000	0.0000	0.1626;
	29	370	12.9146407	220	-10	1.0325	430.5	1	370	290	0	0	0	0	0	0	0	0	0	0	0	22.7125	0.0000	0.0000	0.1626;
	29	370	12.9146407	220	-10	1.0325	430.5	1	370	290	0	0	0	0	0	0	0	0	0	0	0	22.7125	0.0000	0.0000	0.1626;
	43	215	75.4529504	120	-20	1.09091	246.2	1	215	135	0	0	0	0	0	0	0	0	0	0	0	0.8398	0.0000	0.0019	0.0000;
	43	0	0	120	-20	1.09091	275.3	0	247.8	135	0	0	0	0	0	0	0	0	0	0	0	0.0000	0.0000	0.0000	0.0000;
	43	247.8	75.4529504	120	-20	1.09091	275.3	1	247.8	135	0	0	0	0	0	0	0	0	0	0	0	0.8398	0.0000	0.0019	0.0000;
	44	225	2.17700456	120	-20	1.09096	255	1	225	135	0	0	0	0	0	0	0	0	0	0	0	0.8301	0.0000	0.0000	0.0000;
	44	225	2.17700456	120	-20	1.09096	255	1	225	135	0	0	0	0	0	0	0	0	0	0	0	0.8301	0.0000	0.0000	0.0000;
	44	0	0	120	-20	1.09096	255	0	225	135	0	0	0	0	0	0	0	0	0	0	0	0.0000	0.0000	0.0000	0.0000;
	45	0	0	350	-40	1.0325	610.3	0	500	350	0	0	0	0	0	0	0	0	0	0	0	0.0000	0.0000	0.0000	0.0000;
	45	500	35.864306	350	-40	1.0325	610.3	1	500	350	0	0	0	0	0	0	0	0	0	0	0	1.5074	0.0000	0.0000	0.0000;
	55	130	-18.5920527	120	-20	1.09121	255	1	225	130	0	0	0	0	0	0	0	0	0	0	0	0.0000	2.6707	0.0000	0.1306;
	56	130	-9.65928719	120	-20.001	1.09115	255	1	225	130	0	0	0	0	0	0	0	0	0	0	0	0.0000	2.6744	0.0000	0.1282;
	56	130	-9.65928719	120	-20.001	1.09115	255	1	225	130	0	0	0	0	0	0	0	0	0	0	0	0.0000	2.6744	0.0000	0.1282;
	57	130	-0.159032769	120	-20	1.03336	255	1	225	130	0	0	0	0	0	0	0	0	0	0	0	0.0000	2.3876	0.0000	0.4555;
	58	0	0	120	-20	1.03337	255	0	225	130	0	0	0	0	0	0	0	0	0	0	0	0.0000	0.0000	0.0000	0.0000;
	58	130	-15.7780474	120	-20.006	1.03337	255	1	225	130	0	0	0	0	0	0	0	0	0	0	0	0.0000	2.3851	0.0000	0.4554;
	58	130	-15.7780474	120	-20.006	1.03337	255	1	225	130	0	0	0	0	0	0	0	0	0	0	0	0.0000	2.3851	0.0000	0.4554;
	59	78.5	36.24965	33.64	0	1.08415	85.4	1	78.5	78.5	0	0	0	0	0	0	0	0	0	0	0	103.6382	0.0000	0.0447	0.0000;
	78	225	54.9477213	105	5	1.09091	248.3	1	225	140	0	0	0	0	0	0	0	0	0	0	0	4.1968	0.0000	0.0000	0.0000;
	78	225	54.9477213	105	5	1.09091	248.3	1	225	140	0	0	0	0	0	0	0	0	0	0	0	4.1968	0.0000	0.0000	0.0000;
	79	0	0	105	5	1.09034	243.8	0	220	140	0	0	0	0	0	0	0	0	0	0	0	0.0000	0.0000	0.0000	0.0000;
	79	0	0	105	5	1.09034	248.3	0	225	140	0	0	0	0	0	0	0	0	0	0	0	0.0000	0.0000	0.0000	0.0000;
	79	225	4.4529112	105	5	1.09034	248.3	1	225	140	0	0	0	0	0	0	0	0	0	0	0	4.3206	0.0000	0.0011	0.0000;
	82	380	55.2322619	192	-37	1.02993	425.8	1	380	220	0	0	0	0	0	0	0	0	0	0	0	9.1708	0.0000	0.0000	0.0000;
	82	370	58.7328671	174	-19	1.02993	408.9	1	370	220	0	0	0	0	0	0	0	0	0	0	0	9.1708	0.0000	0.0000	0.0000;
	104	225	56.0060179	113	-48	1.09091	251.8	1	225	134	0	0	0	0	0	0	0	0	0	0	0	6.2905	0.0000	0.0000	0.0000;
	105	225	34.2900817	113	-48	1.09091	251.8	1	225	134	0	0	0	0	0	0	0	0	0	0	0	6.2879	0.0000	0.0010	0.0000;
	106	120	27.4868493	90	-5	1.09091	150	1	120	79	0	0	0	0	0	0	0	0	0	0	0	5.0412	0.0000	0.0000	0.0000;
	107	120	49.4955953	90	-5	1.09091	150	1	120	79	0	0	0	0	0	0	0	0	0	0	0	5.0431	0.0000	0.0009	0.0000;
	116	0	0	90	-20	1.09042	150	0	120	90	0	0	0	0	0	0	0	0	0	0	0	0.0000	0.0000	0.0000	0.0000;
	117	120	40.4616016	90	-20	1.09046	150	1	120	70	0	0	0	0	0	0	0	0	0	0	0	2.7658	0.0000	0.0000	0.0000;
	118	110	40.3316245	68	33	1.089	129.3	1	110	80	0	0	0	0	0	0	0	0	0	0	0	1.3545	0.0000	0.0000	0.0648;
	125	215	90.5795319	113	-11	1.09091	242.9	1	215	160	0	0	0	0	0	0	0	0	0	0	0	8.3830	0.0000	0.0000	0.0000;
	126	225	79.0970915	84	-5	1.09082	240.2	1	225	140	0	0	0	0	0	0	0	0	0	0	0	8.3860	0.0000	0.0025	0.0000;
	126	0	0	80	-5	1.09082	229.4	0	215	160	0	0	0	0	0	0	0	0	0	0	0	0.0000	0.0000	0.0000	0.0000;
	127	225	-6.82455426	79	-7.498	1.02869	238.5	1	225	140	0	0	0	0	0	0	0	0	0	0	0	8.8712	0.0000	0.0000	0.6133;
	127	220	-9.14357522	100	-10	1.02869	241.7	1	220	160	0	0	0	0	0	0	0	0	0	0	0	8.8712	0.0000	0.0000	0.6133;
	132	125	10.1016752	40	-38	1.09091	131.2	1	125	74	0	0	0	0	0	0	0	0	0	0	0	99.1743	0.0000	0.0000	0.0000;
	132	125	10.1016752	40	-38	1.09091	131.2	1	125	74	0	0	0	0	0	0	0	0	0	0	0	99.1743	0.0000	0.0000	0.0000;
	133	0	0	40	-38	1.09091	131.2	0	125	74	0	0	0	0	0	0	0	0	0	0	0	0.0000	0.0000	0.0000	0.0000;
	133	125	24.6321472	40	-38	1.09091	131.2	1	125	74	0	0	0	0	0	0	0	0	0	0	0	99.3512	0.0000	0.0000	0.0000;
	134	0	0	90	0	1.08882	150	0	120	102	0	0	0	0	0	0	0	0	0	0	0	0.0000	0.0000	0.0000	0.0000;
	134	120	101.752112	90	0	1.08882	150	1	120	100	0	0	0	0	0	0	0	0	0	0	0	11.0166	0.0000	0.0000	0.0000;
	135	0	0	90	0	1.08867	150	0	120	102	0	0	0	0	0	0	0	0	0	0	0	0.0000	0.0000	0.0000	0.0000;
	146	50	16.3613567	12	0	1.09012	51.4	1	50	30	0	0	0	0	0	0	0	0	0	0	0	8.4261	0.0000	0.0247	0.0000;
	146	50	16.3613567	12	0	1.09012	51.4	1	50	30	0	0	0	0	0	0	0	0	0	0	0	8.4261	0.0000	0.0247	0.0000;
	147	0	0	90	0	1.09011	150	0	120	90	0	0	0	0	0	0	0	0	0	0	0	0.0000	0.0000	0.0000	0.0000;
	148	90	15.4618217	120	0	1.09091	252.4	1	222	90	0	0	0	0	0	0	0	0	0	0	0	0.0000	3.7346	0.0000	0.0000;
	148	0	0	120	0	1.09091	237.5	0	205	135	0	0	0	0	0	0	0	0	0	0	0	0.0000	0.0000	0.0000	0.0000;
	148	0	0	120	0	1.09091	237.5	0	205	135	0	0	0	0	0	0	0	0	0	0	0	0.0000	0.0000	0.0000	0.0000;
	148	90	15.4618217	120	0	1.09091	252.4	1	222	90	0	0	0	0	0	0	0	0	0	0	0	0.0000	3.7346	0.0000	0.0000;
	150	90	31.9580792	120	0	1.03246	252.4	1	222	90	0	0	0	0	0	0	0	0	0	0	0	0.0000	4.7102	0.0000	0.2377;
	151	90	8.06447191	120	0	1.0325	252.4	1	222	90	0	0	0	0	0	0	0	0	0	0	0	0.0000	4.7134	0.0000	0.2386;
	151	90	8.06447191	120	0	1.0325	252.4	1	222	90	0	0	0	0	0	0	0	0	0	0	0	0.0000	4.7134	0.0000	0.2386;
	155	235	36.4602492	120	0	1.09091	263.9	1	235	94	0	0	0	0	0	0	0	0	0	0	0	0.1364	0.0000	0.0000	0.0000;
	155	235	36.4602492	120	0	1.09091	263.9	1	235	94	0	0	0	0	0	0	0	0	0	0	0	0.1364	0.0000	0.0000	0.0000;
	155	0	0	120	0	1.09091	237.5	0	205	130	0	0	0	0	0	0	0	0	0	0	0	0.0000	0.0000	0.0000	0.0000;
	155	261	36.4602492	120	0	1.09091	287.3	1	261	104	0	0	0	0	0	0	0	0	0	0	0	0.1364	0.0000	0.0000	0.0000;
	156	0	0	120	0	1.09091	237.5	0	205	130	0	0	0	0	0	0	0	0	0	0	0	0.0000	0.0000	0.0000	0.0000;
	156	205	37.2979066	120	0	1.09091	237.5	1	205	130	0	0	0	0	0	0	0	0	0	0	0	0.7478	0.0000	0.0000	0.0000;
	156	206	37.2979066	120	0	1.09091	238.4	1	206	120	0	0	0	0	0	0	0	0	0	0	0	0.7478	0.0000	0.0000	0.0000;
	156	206	37.2979066	120	0	1.09091	238.4	1	206	120	0	0	0	0	0	0	0	0	0	0	0	0.7478	0.0000	0.0000	0.0000;
	159	206	45.4103952	120	0	1.00535	238.4	1	206	120	0	0	0	0	0	0	0	0	0	0	0	0.5953	0.0000	0.1487	0.0000;
	165	200	2.86155444	120	-0.009	1.09084	233.2	1	200	150	0	0	0	0	0	0	0	0	0	0	0	15.6466	0.0000	0.0000	0.0000;
	165	200	2.86155444	120	-0.009	1.09084	233.2	1	200	150	0	0	0	0	0	0	0	0	0	0	0	15.6466	0.0000	0.0000	0.0000;
	166	200	90.8689872	120	0	1.09091	233.2	1	200	150	0	0	0	0	0	0	0	0	0	0	0	15.6572	0.0000	0.0020	0.0000;
	166	200	90.8689872	120	0	1.09091	233.2	1	200	150	0	0	0	0	0	0	0	0	0	0	0	15.6572	0.0000	0.0020	0.0000;
	205	179	-28.1598512	110	-60	1.0325	210.1	1	179	140	0	0	0	0	0	0	0	0	0	0	0	109.4271	0.0000	0.0004	0.0000;
	205	179	-28.1598512	110	-60	1.0325	210.1	1	179	140	0	0	0	0	0	0	0	0	0	0	0	109.4271	0.0000	0.0004	0.0000;
	205	0	0	110	-60	1.0325	210.1	0	179	140	0	0	0	0	0	0	0	0	0	0	0	0.0000	0.0000	0.0000	0.0000;
	206	179	31.6040848	110	-60	1.0325	210.1	1	179	140	0	0	0	0	0	0	0	0	0	0	0	109.4273	0.0000	0.0000	0.0000;
	215	37.079	2.0385888	20	0	1.08646	58.5	1	37.079	37.079	0	0	0	0	0	0	0	0	0	0	0	107.6029	0.0000	0.0000	0.0000;
	215	33.708	2.0385888	20	0	1.08646	53.9	1	33.708	33.708	0	0	0	0	0	0	0	0	0	0	0	107.6029	0.0000	0.0000	0.0000;
	215	33.708	2.0385888	20	0	1.08646	53.9	1	33.708	33.708	0	0	0	0	0	0	0	0	0	0	0	107.6029	0.0000	0.0000	0.0000;
	215	15.506	2.0385888	20	0	1.08646	30.5	1	15.506	15.506	0	0	0	0	0	0	0	0	0	0	0	107.6029	0.0000	0.0000	0.0000;
	239	4	0.16697355	8	0	1.03337	15.4	1	4	4	0	0	0	0	0	0	0	0	0	0	0	112.9996	0.0000	2.2671	0.0000;
	246	370	-12.0386169	220	-14	1.03502	430.5	1	370	290	0	0	0	0	0	0	0	0	0	0	0	21.9779	0.0000	0.0000	0.0000;
	291	2	1.44633709	2	0	1.06439	3.2	1	2	2	0	0	0	0	0	0	0	0	0	0	0	108.0721	0.0000	1.6229	0.0000;
	294	3	1.4230856	2	0	1.05278	4.8	1	3	3	0	0	0	0	0	0	0	0	0	0	0	111.8991	0.0000	1.2777	0.0000;
	306	9.167	6.58902315	7	0	1.05332	24	1	9.167	9.167	0	0	0	0	0	0	0	0	0	0	0	103.3043	0.0000	0.9479	0.0000;
	306	16.296	6.58902315	7	0	1.05332	27.9	1	16.296	16.296	0	0	0	0	0	0	0	0	0	0	0	103.3043	0.0000	0.9479	0.0000;
	306	11.204	7.52112306	7.616	6	1.05332	31	1	11.204	11.204	0	0	0	0	0	0	0	0	0	0	0	103.3043	0.0000	0.9479	0.0000;
	306	9.167	6.58902315	7	0	1.05332	26.9	1	9.167	9.167	0	0	0	0	0	0	0	0	0	0	0	103.3043	0.0000	0.9479	0.0000;
	306	9.167	7.46253936	7.928	0	1.05332	28.1	1	9.167	9.167	0	0	0	0	0	0	0	0	0	0	0	103.3043	0.0000	0.9479	0.0000;
	307	36.5	1.84757622	15	0	1.05854	57	1	36.5	36.5	0	0	0	0	0	0	0	0	0	0	0	103.3021	0.0000	0.6146	0.0000;
	307	36.5	1.84757622	15	0	1.05854	57	1	36.5	36.5	0	0	0	0	0	0	0	0	0	0	0	103.3021	0.0000	0.6146	0.0000;
	308	32	14.1107835	15	0	1.067	36.7	1	32	32	0	0	0	0	0	0	0	0	0	0	0	102.6465	0.0000	0.4584	0.0000;
	308	40	16.5528898	17.596	0	1.067	57.7	1	40	40	0	0	0	0	0	0	0	0	0	0	0	102.6465	0.0000	0.4584	0.0000;
	310	35	17.7332158	20	0	1.07303	53.9	1	35	35	0	0	0	0	0	0	0	0	0	0	0	101.5140	0.0000	0.7376	0.0000;
	310	75	24.1588465	27.247	0	1.07303	103.6	1	75	75	0	0	0	0	0	0	0	0	0	0	0	101.5140	0.0000	0.7376	0.0000;
	311	45	3.1064612	40	0	1.06272	64	1	45	45	0	0	0	0	0	0	0	0	0	0	0	101.8647	0.0000	0.5093	0.0000;
	362	37.8	13.5921732	12	0	1.08888	47.8	1	37.8	37.8	0	0	0	0	0	0	0	0	0	0	0	107.3954	0.0000	0.5000	0.0000;
	363	37.8	11.9939211	12	0	1.06039	47.8	1	37.8	37.8	0	0	0	0	0	0	0	0	0	0	0	109.5339	0.0000	1.5579	0.0000;
	364	37.8	14.0222067	12	0	1.1049	47.8	1	37.8	37.8	0	0	0	0	0	0	0	0	0	0	0	106.0017	0.0000	0.0000	0.0000;
	364	45	14.0222067	12	0	1.1049	71	1	45	45	0	0	0	0	0	0	0	0	0	0	0	106.0017	0.0000	0.0000	0.0000;
	365	37.8	12.0342551	12	0	1.06981	47.8	1	37.8	37.8	0	0	0	0	0	0	0	0	0	0	0	108.6493	0.0000	1.5359	0.0000;
	365	37.8	12.0342551	12	0	1.06981	47.8	1	37.8	37.8	0	0	0	0	0	0	0	0	0	0	0	108.6493	0.0000	1.5359	0.0000;
	382	15	3.90120522	10	0	1.08182	55.9	1	55	15	0	0	0	0	0	0	0	0	0	0	0	0.0000	3.9334	0.0000	0.0000;
	382	120	40.7156679	120	-10	1.08182	255.9	1	226	120	0	0	0	0	0	0	0	0	0	0	0	0.0000	3.9334	0.0000	0.0000;
	383	15	13.5169998	10	0	1.10054	55.9	1	55	15	0	0	0	0	0	0	0	0	0	0	0	0.0000	3.2065	0.0000	0.1108;
	386	3	0.916142863	2	0	1.05805	4.8	1	3	3	0	0	0	0	0	0	0	0	0	0	0	104.2076	0.0000	0.5520	0.0000;
	421	4	3.97042944	4	0	1.04857	7.7	1	4	4	0	0	0	0	0	0	0	0	0	0	0	110.1731	0.0000	2.1108	0.0000;
	431	7	5.68728015	8	0	1.08943	13.6	1	7	7	0	0	0	0	0	0	0	0	0	0	0	109.5608	0.0000	0.0000	0.0000;
	440	2.5	1.35198755	2	0	1.0288	3.6	1	2.5	2.5	0	0	0	0	0	0	0	0	0	0	0	101.3275	0.0000	0.7112	0.0000;
	447	3.5	-0.099858007	20	0	1.0498	21.3	1	3.5	3.5	0	0	0	0	0	0	0	0	0	0	0	109.2894	0.0000	0.0000	0.0000;
	447	3.5	-0.099858007	20	0	1.0498	21.3	1	3.5	3.5	0	0	0	0	0	0	0	0	0	0	0	109.2894	0.0000	0.0000	0.0000;
	463	0	0.124398879	2	0	1.0465	4	1	0	0	0	0	0	0	0	0	0	0	0	0	0	111.1153	0.0000	0.2129	0.0000;
	482	1.4	1.61107318	0.7	0	1.02656	1.7	1	1.4	1.4	0	0	0	0	0	0	0	0	0	0	0	102.0959	0.0000	0.8760	0.0000;
	490	3.5	2.17519965	3	0	1.05535	5.3	1	3.5	3.5	0	0	0	0	0	0	0	0	0	0	0	108.2075	0.0000	1.9900	0.0000;
	522	0	0.254336069	1	0	1.06929	1.9	1	0	0	0	0	0	0	0	0	0	0	0	0	0	101.7872	0.0000	0.0000	0.2246;
	533	0.5	0.504184906	1	0	1.07198	1.9	1	0.5	0.5	0	0	0	0	0	0	0	0	0	0	0	108.8685	0.0000	1.0847	0.0000;
	534	35.89	11.2643124	14	0	1.06429	53.9	1	35.89	35.89	0	0	0	0	0	0	0	0	0	0	0	107.9674	0.0000	1.4176	0.0000;
	534	22.086	11.2643124	14	0	1.06429	34.9	1	22.086	22.086	0	0	0	0	0	0	0	0	0	0	0	107.9674	0.0000	1.4176	0.0000;
	534	22.086	11.2643124	14	0	1.06429	34.9	1	22.086	22.086	0	0	0	0	0	0	0	0	0	0	0	107.9674	0.0000	1.4176	0.0000;
	534	72.469	19.3110543	24.001	0	1.06429	107.7	1	72.469	72.469	0	0	0	0	0	0	0	0	0	0	0	107.9674	0.0000	1.4176	0.0000;
	534	72.469	19.3110543	24.001	0	1.06429	107.7	1	72.469	72.469	0	0	0	0	0	0	0	0	0	0	0	107.9674	0.0000	1.4176	0.0000;
	535	24.573	13.5817512	17.5	0	1.05783	36.5	1	24.573	24.573	0	0	0	0	0	0	0	0	0	0	0	107.8909	0.0000	1.6074	0.0000;
	535	23.805	13.5817512	17.5	0	1.05783	35.6	1	23.805	23.805	0	0	0	0	0	0	0	0	0	0	0	107.8909	0.0000	1.6074	0.0000;
	535	95.99	21.7323542	28.002	0	1.05783	128.1	1	95.99	95.99	0	0	0	0	0	0	0	0	0	0	0	107.8909	0.0000	1.6074	0.0000;
	535	80.631	21.7323542	28.002	0	1.05783	108.7	1	80.631	80.631	0	0	0	0	0	0	0	0	0	0	0	107.8909	0.0000	1.6074	0.0000;
	549	1.4	1.91027279	0.7	0	1.0394	1.7	1	1.4	1.4	0	0	0	0	0	0	0	0	0	0	0	110.3849	0.0000	2.7098	0.0000;
	557	25.724	5.48319423	5.052	0	1.04037	34.4	1	25.724	25.724	0	0	0	0	0	0	0	0	0	0	0	109.7380	0.0000	2.7262	0.0000;
	557	21.184	5.48319423	5.052	0	1.04037	28.5	1	21.184	21.184	0	0	0	0	0	0	0	0	0	0	0	109.7380	0.0000	2.7262	0.0000;
	557	19.671	5.42675597	5	0	1.04037	26.5	1	19.671	19.671	0	0	0	0	0	0	0	0	0	0	0	109.7380	0.0000	2.7262	0.0000;
	557	22.697	5.48319423	5.052	0	1.04037	30.4	1	22.697	22.697	0	0	0	0	0	0	0	0	0	0	0	109.7380	0.0000	2.7262	0.0000;
	557	25.724	5.48319423	5.052	0	1.04037	34.4	1	25.724	25.724	0	0	0	0	0	0	0	0	0	0	0	109.7380	0.0000	2.7262	0.0000;
	558	31.032	5.60436025	5.064	0	1.03685	34.4	1	31.032	31.032	0	0	0	0	0	0	0	0	0	0	0	109.7338	0.0000	2.7695	0.0000;
	558	31.032	5.60436025	5.064	0	1.03685	34.4	1	31.032	31.032	0	0	0	0	0	0	0	0	0	0	0	109.7338	0.0000	2.7695	0.0000;
	558	22.817	5.53353106	5	0	1.03685	26.5	1	22.817	22.817	0	0	0	0	0	0	0	0	0	0	0	109.7338	0.0000	2.7695	0.0000;
	558	30.119	5.60436025	5.064	0	1.03685	34.4	1	30.119	30.119	0	0	0	0	0	0	0	0	0	0	0	109.7338	0.0000	2.7695	0.0000;
	594	2.58	0.377131348	1.35	0	1.06495	4.5	1	2.58	2.58	0	0	0	0	0	0	0	0	0	0	0	107.2664	0.0000	0.0405	0.0000;
	601	5.05	2.04581783	2.24	0	1.06191	5.5	1	5.05	5.05	0	0	0	0	0	0	0	0	0	0	0	107.4639	0.0000	0.1573	0.0000;
	622	110	-0.89876884	30	0	1.0778	114	1	110	110	0	0	0	0	0	0	0	0	0	0	0	104.0950	0.0000	0.0000	0.0000;
	622	0	0	30	0	1.0778	65.3	0	0	0	0	0	0	0	0	0	0	0	0	0	0	0.0000	0.0000	0.0000	0.0000;
	626	2.8	0.711060923	1.12	0	1.07287	3	1	2.8	2.8	0	0	0	0	0	0	0	0	0	0	0	104.7709	0.0000	0.0000	0.0510;
	630	5.61	3.16258231	3.14	0	1.06945	6.4	1	5.61	5.61	0	0	0	0	0	0	0	0	0	0	0	107.4721	0.0000	0.0013	0.0000;
	631	6.73	2.73713002	3.14	0	1.06942	7.4	1	6.73	6.73	0	0	0	0	0	0	0	0	0	0	0	107.4263	0.0000	0.0001	0.0000;
	655	1.23	0.436660865	0.45	0	1.03169	1.3	1	1.23	1.23	0	0	0	0	0	0	0	0	0	0	0	108.3971	0.0000	0.5878	0.0000;
	660	135	38.1357212	120	-20	1.08206	255	1	225	135	0	0	0	0	0	0	0	0	0	0	0	0.0000	0.2973	0.0003	0.0000;
	661	135	-7.73644316	120	-20	1.08182	255	1	225	135	0	0	0	0	0	0	0	0	0	0	0	0.0000	0.2933	0.0000	0.0000;
	667	1.91	0.751873006	1.01	0	1.03727	2.2	1	1.91	1.91	0	0	0	0	0	0	0	0	0	0	0	107.3682	0.0000	0.3096	0.0000;
	671	9.53	2.72985778	3.36	0	1.06812	10.1	1	9.53	9.53	0	0	0	0	0	0	0	0	0	0	0	107.1164	0.0000	0.0000	0.1078;
	673	3.36	4.3773118	1.12	0	1.06495	4.4	1	3.36	3.36	0	0	0	0	0	0	0	0	0	0	0	103.6981	0.0000	0.0168	0.0000;
	681	190	-0.565045953	30	0	1.08024	192.4	1	190	190	0	0	0	0	0	0	0	0	0	0	0	103.8516	0.0000	0.0000	0.0759;
	681	24.998	-0.565045953	30	0	1.08024	77.5	1	24.998	24.998	0	0	0	0	0	0	0	0	0	0	0	103.8516	0.0000	0.0000	0.0759;
	687	11.21	4.47790721	5.61	0	1.07512	12.5	1	11.21	11.21	0	0	0	0	0	0	0	0	0	0	0	104.6035	0.0000	0.0000	0.0758;
	699	6.73	3.09754202	3.36	0	1.0746	7.5	1	6.73	6.73	0	0	0	0	0	0	0	0	0	0	0	104.9331	0.0000	0.0000	0.0030;
	702	1.12	-1.22246241	1.12	0	1.0721	1.6	1	1.12	1.12	0	0	0	0	0	0	0	0	0	0	0	103.9180	0.0000	0.0016	0.0000;
	712	10	4.33368318	4	0	1.07103	10.8	1	10	10	0	0	0	0	0	0	0	0	0	0	0	103.2569	0.0000	0.2418	0.0000;
	718	1.57	2.14588462	1.12	0	1.03111	1.9	1	1.57	1.57	0	0	0	0	0	0	0	0	0	0	0	108.4955	0.0000	0.6479	0.0000;
	722	2.8	1.20961853	1.12	0	1.06069	3	1	2.8	2.8	0	0	0	0	0	0	0	0	0	0	0	107.3366	0.0000	0.1394	0.0000;
	731	1.68	-1.38943918	0.56	0	1.06199	4.3	1	1.68	1.68	0	0	0	0	0	0	0	0	0	0	0	105.0460	0.0000	0.1633	0.0000;
	736	130	7.34246309	120	-20	1.08182	255	1	225	130	0	0	0	0	0	0	0	0	0	0	0	0.0000	3.7628	0.0000	0.0000;
	740	2.24	0.0228608114	0	0	1.06599	4.3	1	2.24	2.24	0	0	0	0	0	0	0	0	0	0	0	104.0360	0.0000	0.1510	0.0000;
	747	5.83	2.53065574	3.36	0	1.04853	6.7	1	5.83	5.83	0	0	0	0	0	0	0	0	0	0	0	108.3433	0.0000	0.0000	0.0000;
	759	90	-2.64309818	30	0	1.0699	105.2	1	90	90	0	0	0	0	0	0	0	0	0	0	0	103.0227	0.0000	0.0000	0.0969;
	760	0	0	0	0	1.06824	1.3	0	0	0	0	0	0	0	0	0	0	0	0	0	0	0.0000	0.0000	0.0000	0.0000;
	778	12.34	-0.890232129	30	0	1.05918	32.4	1	12.34	12.34	0	0	0	0	0	0	0	0	0	0	0	104.9867	0.0000	0.0000	0.0000;
	780	1.68	1.90401741	0.9	0	1.07776	1.9	1	1.68	1.68	0	0	0	0	0	0	0	0	0	0	0	104.0981	0.0000	0.0000	0.0003;
	783	6	2.26668134	3	0	1.07336	6.7	1	6	6	0	0	0	0	0	0	0	0	0	0	0	105.0189	0.0000	0.0000	0.0445;
	788	2	1.27163026	1	0	1.04756	95.9	1	2	2	0	0	0	0	0	0	0	0	0	0	0	106.0440	0.0000	0.0268	0.0000;
	792	68	-4.65262175	23	0	1.05369	71.8	1	68	0	0	0	0	0	0	0	0	0	0	0	0	104.9367	0.0000	0.0000	0.0000;
	792	0	0	23	0	1.05369	71.8	0	68	0	0	0	0	0	0	0	0	0	0	0	0	0.0000	0.0000	0.0000	0.0000;
	792	0	0	11	0	1.05369	23.7	0	21	0	0	0	0	0	0	0	0	0	0	0	0	0.0000	0.0000	0.0000	0.0000;
	792	0	0	10	0	1.05369	23.3	0	21	0	0	0	0	0	0	0	0	0	0	0	0	0.0000	0.0000	0.0000	0.0000;
	803	0	12.0935357	10	-0.002	1.08195	55.9	1	55	0	0	0	0	0	0	0	0	0	0	0	0	0.0000	7.2443	0.0000	0.1110;
	804	0	47.1547335	10	0	1.07278	120.4	1	120	0	0	0	0	0	0	0	0	0	0	0	0	0.0000	4.6029	0.0329	0.0000;
	809	0	0	0	0	1.07004	3.3	0	0	0	0	0	0	0	0	0	0	0	0	0	0	0.0000	0.0000	0.0000	0.0000;
	815	3.36	1.52112915	2.02	0	1.07164	3.9	1	3.36	3.36	0	0	0	0	0	0	0	0	0	0	0	107.1130	0.0000	0.0000	0.0595;
	834	1.12	0.458502117	0	0	1.05238	1.5	1	1.12	1.12	0	0	0	0	0	0	0	0	0	0	0	105.9599	0.0000	0.3467	0.0000;
	840	30	9.12361704	8.1	0	1.05932	51.6	1	30	30	0	0	0	0	0	0	0	0	0	0	0	103.6599	0.0000	0.2636	0.0000;
	840	30	9.12361704	8.1	0	1.05932	51.6	1	30	30	0	0	0	0	0	0	0	0	0	0	0	103.6599	0.0000	0.2636	0.0000;
	844	1.9	0.485276531	0.45	0	1.07659	3.5	1	1.9	1.9	0	0	0	0	0	0	0	0	0	0	0	99.4756	0.0000	0.1390	0.0000;
	848	3.01	0.326374064	0	0	1.05907	5.6	1	3.01	3.01	0	0	0	0	0	0	0	0	0	0	0	101.8848	0.0000	0.7220	0.0000;
	854	7	1.21817719	1.35	0	1.06201	14.6	1	7	7	0	0	0	0	0	0	0	0	0	0	0	101.2757	0.0000	0.8021	0.0000;
	873	68	9.17531465	41.2	0	1.08182	87.7	1	68	68	0	0	0	0	0	0	0	0	0	0	0	98.2406	0.0000	0.0000	0.0000;
	876	0	0	0	0	1.0397	1.9	0	0	0	0	0	0	0	0	0	0	0	0	0	0	0.0000	0.0000	0.0000	0.0000;
	896	0	0	45	-10	1.06882	65.8	0	0	0	0	0	0	0	0	0	0	0	0	0	0	0.0000	0.0000	0.0000	0.0000;
	896	0	0	45	-10	1.06882	71.1	0	0	0	0	0	0	0	0	0	0	0	0	0	0	0.0000	0.0000	0.0000	0.0000;
	896	55	44.8327099	45	-10	1.06882	71.1	1	55	55	0	0	0	0	0	0	0	0	0	0	0	100.5192	0.0000	0.1987	0.0000;
	902	0.111	-0.183244267	0	0	1.0143	0.3	1	0.111	0.111	0	0	0	0	0	0	0	0	0	0	0	109.5441	0.0000	1.2633	0.0000;
	903	0	0	0	0	1.01428	2.5	0	0	0	0	0	0	0	0	0	0	0	0	0	0	0.0000	0.0000	0.0000	0.0000;
	952	2.6	-0.36750102	0.6	0	1.06079	3	1	2.6	2.6	0	0	0	0	0	0	0	0	0	0	0	103.3417	0.0000	0.1705	0.0000;
	958	0	0	0	0	1.04967	2.5	0	0	0	0	0	0	0	0	0	0	0	0	0	0	0.0000	0.0000	0.0000	0.0000;
	972	27	15.6524679	32	5	1.08182	54	1	27	27	0	0	0	0	0	0	0	0	0	0	0	98.6627	0.0000	0.0000	0.0000;
	972	0	0	32	5	1.08182	42.5	0	0	0	0	0	0	0	0	0	0	0	0	0	0	0.0000	0.0000	0.0000	0.0000;
	972	3	3.3672151	7	1	1.08182	11.4	1	3	3	0	0	0	0	0	0	0	0	0	0	0	98.6627	0.0000	0.0000	0.0000;
	972	80	19.1803774	110	-40	1.08182	162.2	1	80	80	0	0	0	0	0	0	0	0	0	0	0	98.6627	0.0000	0.0000	0.0000;
	973	80	29.7246208	110	-40	1.081	162.2	1	80	80	0	0	0	0	0	0	0	0	0	0	0	98.8641	0.0000	0.0000	0.0000;
...
];

%% branch data
%	fbus	tbus	r	x	b	rateA	rateB	rateC	ratio	angle	status	angmin	angmax	Pf	Qf	Pt	Qt	mu_Sf	mu_St	mu_angmin	mu_angmax
mpc.branch = [
	7	8	0.00064	0.0305	0	400	400	400	1.0435	-0.6	1	-360	360	-222.6134	-43.0419	222.9471	58.9417	0.0000	0.0000	0.0000	0.0000;
	26	28	0.00036	0.02519	0	500	500	500	1.0565	0	1	-360	360	-19.6561	0.6127	19.6574	-0.5214	0.0000	0.0000	0.0000	0.0000;
	27	29	0.00036	0.02519	0	500	500	500	1.0566	0	1	-360	360	112.0095	-0.2325	-111.9671	3.1973	0.0000	0.0000	0.0000	0.0000;
	40	42	0.00034	0.02097	0	500	500	500	1.068	0	1	-360	360	30.8170	-52.9169	-30.8047	53.6741	0.0000	0.0000	0.0000	0.0000;
	43	46	0.00034	0.02097	0	500	500	500	1.0569	0	1	-360	360	68.7303	-2.3518	-68.7152	3.2827	0.0000	0.0000	0.0000	0.0000;
	55	57	0.00081	0.03	0	400	400	400	1.0765	0	1	-360	360	43.0649	-67.4225	-43.0144	69.2912	0.0000	0.0000	0.0000	0.0000;
	90	92	0.00075	0.02444	-0.00832	330	330	330	1.0631	0	1	-360	360	-128.0632	-25.6225	128.1855	30.4843	0.0000	0.0000	0.0000	0.0000;
	91	93	0.00075	0.02469	-0.008	330	330	330	1.0632	0	1	-360	360	-127.0451	-25.9132	127.1656	30.7251	0.0000	0.0000	0.0000	0.0000;
	125	128	0.0005	0.02875	-0.016	400	400	400	1.0639	0	1	-360	360	76.8964	-11.5318	-76.8675	14.8782	0.0000	0.0000	0.0000	0.0000;
	149	150	0.00064	0.0305	0	400	400	400	1.0826	0	1	-360	360	-210.1326	-70.8756	210.4425	85.6457	0.0000	0.0000	0.0000	0.0000;
	155	158	0.000232	0.023	0	500	500	500	1.089	0	1	-360	360	-32.2212	-15.1327	32.2241	15.4232	0.0000	0.0000	0.0000	0.0000;
	156	159	0.000232	0.023	0	500	500	500	1.0893	0	1	-360	360	-120.4668	-13.9905	120.5008	17.3633	0.0000	0.0000	0.0000	0.0000;
	170	172	0.00035	0.02375	0	500	500	500	1.1049	0	1	-360	360	74.8984	-101.7607	-74.8384	105.8313	0.0000	0.0000	0.0000	0.0000;
	183	184	0.00059	0.03093	0	400	400	400	1.091	0	1	-360	360	-104.9828	-63.9069	105.0685	68.4002	0.0000	0.0000	0.0000	0.0000;
	190	192	0.0004	0.03	0	500	500	500	1.1321	0	1	-360	360	-151.7004	-136.3381	151.8881	150.4147	0.0000	0.0000	0.0000	0.0000;
	2735	158	0.00031	0.00338	0.0992	1386	1386	1386	0	0	1	-360	360	89.1662	-22.8596	-89.1408	13.1136	0.0000	0.0000	0.0000	0.0000;
	2735	159	0.00031	0.00338	0.0992	1386	1386	1386	0	0	1	-360	360	86.1078	-23.1851	-86.0840	13.4214	0.0000	0.0000	0.0000	0.0000;
	2736	68	0.014341	0.083531	0.126034	415	415	415	0	0	1	-360	360	125.0000	0.3028	-123.1098	-4.0437	0.0000	0.0000	0.0000	0.0000;
	2734	76	0.01219	0.070659	0.117418	412	412	412	0	0	1	-360	360	-134.3573	3.8629	136.2662	-6.5698	0.0000	0.0000	0.0000	0.0000;
	2734	105	0.011781	0.07087	0.116838	412	412	412	0	0	1	-360	360	-136.2807	0.5231	138.1723	-2.8732	0.0000	0.0000	0.0000	0.0000;
	2739	200	9e-06	9.4e-05	0	924	924	924	0	0	1	-360	360	400.0000	-2.3704	-399.9868	2.5083	0.0000	0.0000	0.0000	0.0000;
	128	2732	0.0015	0.01469	0.40384	1386	1386	1386	0	0	0	-360	360	0.0000	0.0000	0.0000	0.0000	0.0000	0.0000	0.0000	0.0000;
	127	2733	0.001419	0.014675	0.4896	1386	1386	1386	0	0	1	-360	360	639.5763	19.0304	-634.0640	-13.2720	0.0000	0.0000	0.0000	0.0000;
	2737	148	0.001651	0.015909	0.046948	373	373	373	0	0	1	-360	360	-39.4615	-14.1168	39.4850	8.7675	0.0000	0.0000	0.0000	0.0000;
	2737	149	0.001651	0.015909	0.046948	373	373	373	0	0	1	-360	360	-40.1365	-14.5292	40.1608	9.1880	0.0000	0.0000	0.0000	0.0000;
	2738	48	0.00188	0.02287	0.6432	831	831	831	0	0	1	-360	360	-232.9586	-79.2984	234.0108	26.1398	0.0000	0.0000	0.0000	0.0000;
	2738	49	0.00188	0.02287	0.6432	831	831	831	0	0	1	-360	360	-232.2254	-79.2486	233.2711	26.0138	0.0000	0.0000	0.0000	0.0000;
	82	2732	0.003519	0.039313	1.0336	1621	1621	1621	0	0	1	-360	360	312.0599	-12.5325	-308.7700	-58.2530	0.0000	0.0000	0.0000	0.0000;
	43	23	0.01345	0.081141	0.141134	339	339	339	0	0	1	-360	360	205.6280	70.2942	-200.1495	-52.9424	0.0000	0.0000	0.0000	0.0000;
	26	90	0.009091	0.062401	0.111417	457	457	457	0	0	1	-360	360	124.2172	-15.9074	-123.0319	10.8159	0.0000	0.0000	0.0000	0.0000;
	27	91	0.00868	0.06405	0.096994	457	457	457	0	0	1	-360	360	178.7227	-16.6191	-176.3844	22.3588	0.0000	0.0000	0.0000	0.0000;
	146	30	0.016961	0.123659	0.196988	373	373	373	0	0	1	-360	360	87.4793	39.4737	-86.0132	-50.7879	0.0000	0.0000	0.0000	0.0000;
	135	34	0.00512	0.02618	0.029621	335	335	335	0	0	1	-360	360	-80.2767	110.3280	81.0979	-109.5670	0.0000	0.0000	0.0000	0.0000;
	134	20	0.01068	0.061961	0.094961	415	415	415	0	0	1	-360	360	-184.1961	77.8028	187.8797	-67.4509	0.0000	0.0000	0.0000	0.0000;
	165	21	0.014651	0.105891	0.170852	373	373	373	0	0	1	-360	360	113.3912	36.7640	-111.5369	-42.6832	0.0000	0.0000	0.0000	0.0000;
	41	109	0.01488	0.08161	0.114805	347	347	347	0	0	1	-360	360	-106.4068	18.0507	107.9067	-23.4107	0.0000	0.0000	0.0000	0.0000;
	40	91	0.011159	0.07231	0.103673	362	362	362	0	0	1	-360	360	-157.2581	26.4073	159.6877	-22.9426	0.0000	0.0000	0.0000	0.0000;
	179	83	0.008616	0.077645	0.122239	373	373	373	0	0	1	-360	360	-147.1461	-6.6622	148.8025	7.5978	0.0000	0.0000	0.0000	0.0000;
	203	166	0.01176	0.068289	0.102802	362	362	362	0	0	1	-360	360	-249.8475	-27.6929	256.7438	56.1073	0.0000	0.0000	0.0000	0.0000;
	194	166	0.016818	0.089091	0.129935	400	400	400	0	0	1	-360	360	-172.0197	-11.4594	176.5365	20.4920	0.0000	0.0000	0.0000	0.0000;
	193	165	0.013843	0.087025	0.134842	427	427	427	0	0	1	-360	360	-177.2771	-16.8003	181.2347	26.2250	0.0000	0.0000	0.0000	0.0000;
	207	168	0.01676	0.097169	0.148685	274	274	274	0	0	1	-360	360	23.5002	1.9785	-23.4046	-18.5677	0.0000	0.0000	0.0000	0.0000;
	43	12	0.01269	0.074979	0.130196	377	377	377	0	0	1	-360	360	225.8389	80.8406	-219.5636	-58.2054	0.0000	0.0000	0.0000	0.0000;
	198	18	0.014091	0.10413	0.15972	373	373	373	0	0	1	-360	360	-88.2574	-30.7537	89.3056	20.1200	0.0000	0.0000	0.0000	0.0000;
	100	55	0.003719	0.0438	0.100962	457	457	457	0	0	1	-360	360	-13.2272	-25.8823	13.2454	14.1685	0.0000	0.0000	0.0000	0.0000;
	163	82	0.00194	0.02056	0.51584	1316	1316	1316	0	0	1	-360	360	-520.4307	-88.0426	525.7424	91.0996	0.0000	0.0000	0.0000	0.0000;
	45	9	0.0015	0.01506	0.4032	1386	1386	1386	0	0	1	-360	360	376.2401	104.5915	-374.0247	-124.4068	0.0000	0.0000	0.0000	0.0000;
	185	151	0.00294	0.03463	0.9216	693	693	693	0	0	1	-360	360	25.6661	-28.8622	-25.6362	-69.7676	0.0000	0.0000	0.0000	0.0000;
	121	57	0.00169	0.01994	0.50624	831	831	831	0	0	1	-360	360	-16.2445	-14.8236	16.2510	-39.2671	0.0000	0.0000	0.0000	0.0000;
	29	93	0.00137	0.01625	0.41184	1386	1386	1386	0	0	1	-360	360	270.1963	-31.2425	-269.2570	-1.4677	0.0000	0.0000	0.0000	0.0000;
	28	123	0.00231	0.02769	0.70144	1386	1386	1386	0	0	1	-360	360	427.2997	-67.4651	-423.3238	39.9898	0.0000	0.0000	0.0000	0.0000;
	25	192	0.00207	0.02474	0.664	831	831	831	0	0	1	-360	360	447.5995	19.9553	-443.4198	-35.7430	0.0000	0.0000	0.0000	0.0000;
	120	64	0.0015	0.01788	0.4512	831	831	831	0	0	1	-360	360	149.0230	-24.0308	-148.7123	-20.5513	0.0000	0.0000	0.0000	0.0000;
	122	65	0.00469	0.05544	1.4048	831	831	831	0	0	1	-360	360	195.6669	-74.9539	-193.9985	-55.9490	0.0000	0.0000	0.0000	0.0000;
	82	31	0.00331	0.03425	0.85888	1150	1150	1150	0	0	1	-360	360	-123.5032	-35.6012	123.9823	-50.6800	0.0000	0.0000	0.0000	0.0000;
	92	28	0.00219	0.02369	0.59584	1316	1316	1316	0	0	1	-360	360	-183.8314	-16.2947	184.5322	-39.5679	0.0000	0.0000	0.0000	0.0000;
	11	4	0.01674	0.09711	0.144232	461	461	461	0	0	1	-360	360	-228.9768	9.5739	237.5581	24.6998	0.0000	0.0000	0.0000	0.0000;
	30	12	0.0057	0.0407	0.06021	373	373	373	0	0	1	-360	360	-34.5983	23.0305	34.7009	-28.5418	0.0000	0.0000	0.0000	0.0000;
	33	4	0.004419	0.032229	0.049852	392	392	392	0	0	1	-360	360	209.6690	7.0331	-207.9651	-0.2510	0.0000	0.0000	0.0000	0.0000;
	17	7	0.014591	0.11219	0.165528	427	427	427	0	0	1	-360	360	-60.5020	53.4816	61.4426	-64.9859	0.0000	0.0000	0.0000	0.0000;
	22	10	0.01211	0.087419	0.140166	373	373	373	0	0	1	-360	360	-28.9183	21.7854	29.1097	-35.1224	0.0000	0.0000	0.0000	0.0000;
	26	5	0.009773	0.050516	0.088959	377	377	377	0	0	1	-360	360	246.8837	28.0295	-241.7872	-11.9697	0.0000	0.0000	0.0000	0.0000;
	17	3	0.01068	0.07895	0.122597	274	274	274	0	0	1	-360	360	136.8805	37.8903	-135.0158	-38.1461	0.0000	0.0000	0.0000	0.0000;
	26	19	0.0057	0.039521	0.075533	480	480	480	0	0	1	-360	360	254.3467	39.7688	-251.1544	-26.4160	0.0000	0.0000	0.0000	0.0000;
	27	20	0.0057	0.039521	0.075533	480	480	480	0	0	1	-360	360	345.0742	35.7352	-339.2934	-4.4357	0.0000	0.0000	0.0000	0.0000;
	10	6	0.00525	0.03988	0.061952	373	373	373	0	0	1	-360	360	-6.1724	-57.9621	6.3275	52.6286	0.0000	0.0000	0.0000	0.0000;
	32	10	0.00093	0.00651	0.011132	373	373	373	0	0	1	-360	360	-102.4669	-27.0442	102.5687	26.6147	0.0000	0.0000	0.0000	0.0000;
	23	11	0.00205	0.01326	0.022429	415	415	415	0	0	1	-360	360	20.6986	19.0768	-20.6820	-21.2830	0.0000	0.0000	0.0000	0.0000;
	34	5	0.007831	0.043	0.04962	335	335	335	0	0	1	-360	360	-154.8657	46.7072	156.6883	-42.3010	0.0000	0.0000	0.0000	0.0000;
	19	4	0.00293	0.01599	0.024781	362	362	362	0	0	1	-360	360	149.9012	13.9608	-149.3150	-13.5584	0.0000	0.0000	0.0000	0.0000;
	26	1	0.00155	0.01169	0.018198	747	747	747	0	0	1	-360	360	77.4705	86.8756	-77.2915	-87.6710	0.0000	0.0000	0.0000	0.0000;
	27	2	0.00155	0.01169	0.018198	747	747	747	0	0	1	-360	360	56.5722	82.9429	-56.4386	-84.0814	0.0000	0.0000	0.0000	0.0000;
	27	33	0.003841	0.028531	0.045883	392	392	392	0	0	1	-360	360	322.1284	49.9789	-318.6897	-29.7876	0.0000	0.0000	0.0000	0.0000;
	24	33	2e-06	2.1e-05	0	392	392	392	0	0	1	-360	360	-109.0205	-22.7523	109.0207	22.7545	0.0000	0.0000	0.0000	0.0000;
	25	9	0.00298	0.03417	0.93504	831	831	831	0	0	1	-360	360	-27.8631	-64.6931	27.8953	-29.6807	0.0000	0.0000	0.0000	0.0000;
	28	25	0.00358	0.04262	1.0944	1386	1386	1386	0	0	1	-360	360	615.2513	38.1290	-602.2269	3.5248	0.0000	0.0000	0.0000	0.0000;
	14	29	0.00336	0.03977	1.02163	1316	1316	1316	0	0	1	-360	360	-545.6011	-9.9625	555.5059	20.8555	0.0000	0.0000	0.0000	0.0000;
	8	15	0.00299	0.03675	0.9184	1358	1358	1358	0	0	1	-360	360	155.3733	-50.0251	-154.6654	-34.7907	0.0000	0.0000	0.0000	0.0000;
	8	14	0.00112	0.01329	0.341248	1358	1358	1358	0	0	1	-360	360	-244.4615	23.5451	245.1360	-50.2783	0.0000	0.0000	0.0000	0.0000;
	31	29	0.00063	0.00749	0.392256	1358	1358	1358	0	0	1	-360	360	-368.2776	0.0626	369.0834	-32.2557	0.0000	0.0000	0.0000	0.0000;
	63	59	0.010479	0.060969	0.092047	316	316	316	0	0	1	-360	360	9.2066	-6.0482	-9.1990	-4.7319	0.0000	0.0000	0.0000	0.0000;
	61	56	0.00882	0.065641	0.100662	274	274	274	0	0	1	-360	360	-23.0613	-12.0894	23.1039	0.4842	0.0000	0.0000	0.0000	0.0000;
	67	35	0.011219	0.065581	0.098349	274	274	274	0	0	1	-360	360	23.1014	-2.0761	-23.0489	-9.0501	0.0000	0.0000	0.0000	0.0000;
	51	35	0.01163	0.07031	0.105802	377	377	377	0	0	1	-360	360	-50.0970	-3.0846	50.3519	-7.5772	0.0000	0.0000	0.0000	0.0000;
	59	43	0.00545	0.040211	0.066986	446	446	446	0	0	1	-360	360	-80.4942	-10.1743	80.7964	4.4816	0.0000	0.0000	0.0000	0.0000;
	60	44	0.00545	0.040211	0.066986	446	446	446	0	0	1	-360	360	-81.9384	-10.0286	82.2515	4.4150	0.0000	0.0000	0.0000	0.0000;
	60	35	0.00837	0.04868	0.073481	419	419	419	0	0	1	-360	360	82.6136	1.1843	-82.1255	-6.9170	0.0000	0.0000	0.0000	0.0000;
	68	52	0.003159	0.02076	0.03146	415	415	415	0	0	1	-360	360	49.4298	-5.2643	-49.3624	2.0898	0.0000	0.0000	0.0000	0.0000;
	52	39	0.006979	0.051961	0.079666	373	373	373	0	0	1	-360	360	46.7620	4.8977	-46.6238	-12.9595	0.0000	0.0000	0.0000	0.0000;
	37	56	0.00374	0.027831	0.042689	274	274	274	0	0	1	-360	360	-129.7158	-4.4943	130.2498	3.4111	0.0000	0.0000	0.0000	0.0000;
	38	36	0.00769	0.057271	0.087894	373	373	373	0	0	1	-360	360	63.4777	-1.7170	-63.2140	-6.6237	0.0000	0.0000	0.0000	0.0000;
	55	38	0.00556	0.04145	0.063598	427	427	427	0	0	1	-360	360	87.5595	0.4075	-87.2006	-5.2670	0.0000	0.0000	0.0000	0.0000;
	67	37	0.004521	0.03368	0.051691	392	392	392	0	0	1	-360	360	-85.1655	-7.2072	85.4470	3.2412	0.0000	0.0000	0.0000	0.0000;
	67	66	0.00151	0.008781	0.013165	377	377	377	0	0	1	-360	360	62.0640	9.2833	-62.0129	-10.5206	0.0000	0.0000	0.0000	0.0000;
	62	43	0.00574	0.042831	0.065727	446	446	446	0	0	1	-360	360	-62.2204	-10.6356	62.4115	4.2842	0.0000	0.0000	0.0000	0.0000;
	63	44	0.00707	0.045409	0.069309	347	347	347	0	0	1	-360	360	-60.0501	-9.0764	60.2683	2.2762	0.0000	0.0000	0.0000	0.0000;
	62	40	0.01213	0.062151	0.093712	347	347	347	0	0	1	-360	360	-55.4614	-0.2775	55.7814	-9.1460	0.0000	0.0000	0.0000	0.0000;
	61	41	0.002479	0.017979	0.027588	373	373	373	0	0	1	-360	360	-90.4832	-5.7555	90.6559	3.7483	0.0000	0.0000	0.0000	0.0000;
	47	40	0.002401	0.01494	0.022525	377	377	377	0	0	1	-360	360	-86.2545	-15.5430	86.4106	13.8554	0.0000	0.0000	0.0000	0.0000;
	50	46	0.00167	0.0189	0.54176	1358	1358	1358	0	0	1	-360	360	-115.3753	-6.8101	115.5907	-48.6198	0.0000	0.0000	0.0000	0.0000;
	58	54	0.00109	0.01277	0.34176	1358	1358	1358	0	0	1	-360	360	151.6557	-3.4946	-151.4187	-30.1091	0.0000	0.0000	0.0000	0.0000;
	42	58	0.002259	0.026439	0.70784	1358	1358	1358	0	0	1	-360	360	30.8047	-53.6741	-30.7789	-21.3558	0.0000	0.0000	0.0000	0.0000;
	64	58	0.00094	0.01097	0.29376	1552	1552	1552	0	0	1	-360	360	-271.7921	13.1985	272.4494	-36.9016	0.0000	0.0000	0.0000	0.0000;
	48	65	0.00113	0.01406	0.37488	831	831	831	0	0	1	-360	360	-503.2942	-54.8022	506.0546	49.5939	0.0000	0.0000	0.0000	0.0000;
	53	45	0.00176	0.02144	0.57344	1358	1358	1358	0	0	1	-360	360	-56.8299	-36.9367	56.8841	-23.3926	0.0000	0.0000	0.0000	0.0000;
	96	125	0.004876	0.033616	0.059609	446	446	446	0	0	1	-360	360	-102.6595	-14.7654	103.1035	10.7878	0.0000	0.0000	0.0000	0.0000;
	75	106	0.01093	0.059194	0.08439	290	290	290	0	0	1	-360	360	-43.6788	-10.8843	43.8599	1.8942	0.0000	0.0000	0.0000	0.0000;
	106	94	0.001942	0.013926	0.022845	446	446	446	0	0	1	-360	360	9.5929	9.0997	-9.5896	-11.7911	0.0000	0.0000	0.0000	0.0000;
	79	85	0.004318	0.029752	0.05264	373	373	373	0	0	1	-360	360	2.7944	9.9125	-2.7879	-16.1050	0.0000	0.0000	0.0000	0.0000;
	131	130	0.000661	0.004959	0.007579	419	419	419	0	0	1	-360	360	136.0543	26.2809	-135.9467	-26.3669	0.0000	0.0000	0.0000	0.0000;
	107	131	0.005372	0.040393	0.060055	419	419	419	0	0	1	-360	360	31.7588	3.8025	-31.7108	-10.5611	0.0000	0.0000	0.0000	0.0000;
	91	131	0.000826	0.005248	0.008683	305	305	305	0	0	1	-360	360	104.4212	15.1872	-104.3435	-15.7198	0.0000	0.0000	0.0000	0.0000;
	100	119	0.015888	0.087603	0.116818	347	347	347	0	0	1	-360	360	-94.8825	6.1155	96.1255	-13.0345	0.0000	0.0000	0.0000	0.0000;
	81	113	0.002169	0.014587	0.025749	316	316	316	0	0	1	-360	360	-14.0274	-5.1646	14.0313	2.1983	0.0000	0.0000	0.0000	0.0000;
	116	101	0.017727	0.116777	0.163611	290	290	290	0	0	1	-360	360	96.8297	-12.4822	-95.4307	2.3829	0.0000	0.0000	0.0000	0.0000;
	126	74	0.00593	0.04093	0.072145	446	446	446	0	0	1	-360	360	43.5766	10.3924	-43.4712	-18.1886	0.0000	0.0000	0.0000	0.0000;
	108	90	0.003905	0.028471	0.044983	427	427	427	0	0	1	-360	360	-92.5513	7.8662	92.8379	-11.1000	0.0000	0.0000	0.0000	0.0000;
	118	79	0.008161	0.042417	0.061197	385	385	385	0	0	1	-360	360	-88.6616	11.4875	89.2183	-15.8606	0.0000	0.0000	0.0000	0.0000;
	119	78	0.008161	0.042417	0.061197	385	385	385	0	0	1	-360	360	-98.1017	12.0411	98.7810	-15.7806	0.0000	0.0000	0.0000	0.0000;
	79	76	0.005186	0.038388	0.058748	492	492	492	0	0	1	-360	360	-26.4223	4.2180	26.4553	-10.9486	0.0000	0.0000	0.0000	0.0000;
	78	73	0.002128	0.014029	0.022603	335	335	335	0	0	1	-360	360	94.9376	30.3634	-94.7585	-31.8579	0.0000	0.0000	0.0000	0.0000;
	114	78	0.004628	0.027748	0.046115	362	362	362	0	0	1	-360	360	-104.3345	-32.1294	104.8020	29.5065	0.0000	0.0000	0.0000	0.0000;
	103	72	0.011219	0.070744	0.115705	290	290	290	0	0	1	-360	360	-5.1661	-10.3051	5.1698	-3.2557	0.0000	0.0000	0.0000	0.0000;
	110	117	0.006012	0.041467	0.073636	427	427	427	0	0	1	-360	360	-102.6978	-3.1663	103.2369	-1.8231	0.0000	0.0000	0.0000	0.0000;
	91	69	0.002066	0.012789	0.020551	316	316	316	0	0	1	-360	360	97.4268	18.4975	-97.2544	-19.8549	0.0000	0.0000	0.0000	0.0000;
	86	90	0.001364	0.009731	0.016243	457	457	457	0	0	1	-360	360	-100.0306	-19.7753	100.1506	18.7130	0.0000	0.0000	0.0000	0.0000;
	129	87	0.000579	0.004112	0.007008	446	446	446	0	0	1	-360	360	-62.1176	-8.1054	62.1369	7.4174	0.0000	0.0000	0.0000	0.0000;
	132	76	0.000847	0.00624	0.009544	457	457	457	0	0	1	-360	360	247.0000	2.2034	-246.5657	-0.1378	0.0000	0.0000	0.0000	0.0000;
	133	77	0.000847	0.00626	0.009477	457	457	457	0	0	1	-360	360	123.0000	18.6321	-122.8897	-18.9427	0.0000	0.0000	0.0000	0.0000;
	102	77	0.001591	0.011116	0.019128	492	492	492	0	0	1	-360	360	-206.1400	-34.6998	206.7326	36.5861	0.0000	0.0000	0.0000	0.0000;
	125	104	0.003141	0.021591	0.038391	446	446	446	0	0	1	-360	360	-59.4701	6.7022	59.5655	-10.6148	0.0000	0.0000	0.0000	0.0000;
	126	111	0.004545	0.03157	0.055312	373	373	373	0	0	1	-360	360	87.0885	39.7278	-86.7281	-43.7112	0.0000	0.0000	0.0000	0.0000;
	104	84	0.001446	0.009917	0.017598	373	373	373	0	0	1	-360	360	123.2742	28.1061	-123.0792	-28.8551	0.0000	0.0000	0.0000	0.0000;
	105	95	0.003822	0.026674	0.046154	373	373	373	0	0	1	-360	360	23.0408	0.1624	-23.0235	-5.5266	0.0000	0.0000	0.0000	0.0000;
	112	80	0.007769	0.041281	0.063907	316	316	316	0	0	1	-360	360	-3.6958	-9.9392	3.6993	2.5542	0.0000	0.0000	0.0000	0.0000;
	89	78	0.004463	0.030413	0.048671	290	290	290	0	0	1	-360	360	-13.3663	-14.4725	13.3781	8.7809	0.0000	0.0000	0.0000	0.0000;
	117	108	0.005888	0.035062	0.052349	290	290	290	0	0	1	-360	360	47.9618	-1.2898	-47.8477	-4.2383	0.0000	0.0000	0.0000	0.0000;
	109	99	0.003161	0.023409	0.036165	373	373	373	0	0	1	-360	360	-44.3334	1.1046	44.3862	-4.9923	0.0000	0.0000	0.0000	0.0000;
	116	79	0.001839	0.012603	0.022399	373	373	373	0	0	1	-360	360	-81.9915	11.6459	82.0981	-13.5786	0.0000	0.0000	0.0000	0.0000;
	107	88	0.001715	0.009607	0.014239	335	335	335	0	0	1	-360	360	72.0941	29.3115	-72.0061	-30.5072	0.0000	0.0000	0.0000	0.0000;
	98	79	0.003409	0.024421	0.039969	290	290	290	0	0	1	-360	360	-68.1777	-2.5445	68.3116	-1.2384	0.0000	0.0000	0.0000	0.0000;
	117	78	0.001839	0.012603	0.02239	373	373	373	0	0	1	-360	360	-110.9084	11.6328	111.1013	-12.9747	0.0000	0.0000	0.0000	0.0000;
	83	97	0.005702	0.041488	0.066172	446	446	446	0	0	1	-360	360	-47.2168	-7.1124	47.3266	0.1879	0.0000	0.0000	0.0000	0.0000;
	124	118	0.004587	0.024628	0.036165	347	347	347	0	0	1	-360	360	-68.5499	-8.5538	68.7348	5.2750	0.0000	0.0000	0.0000	0.0000;
	124	110	0.002149	0.013327	0.022109	290	290	290	0	0	1	-360	360	-16.4328	1.6216	16.4379	-4.1905	0.0000	0.0000	0.0000	0.0000;
	100	71	0.000785	0.004876	0.00726	316	316	316	0	0	1	-360	360	8.3105	0.0850	-8.3100	-0.9330	0.0000	0.0000	0.0000	0.0000;
	101	70	0.000785	0.004876	0.007241	316	316	316	0	0	1	-360	360	7.1233	-0.8466	-7.1230	0.0000	0.0000	0.0000	0.0000	0.0000;
	93	127	0.002413	0.027544	0.767968	831	831	831	0	0	1	-360	360	197.7371	-43.4490	-196.8498	-27.8924	0.0000	0.0000	0.0000	0.0000;
	82	127	0.002462	0.028525	0.7616	1621	1621	1621	0	0	1	-360	360	98.6301	-43.1132	-98.4041	-34.9588	0.0000	0.0000	0.0000	0.0000;
	122	115	0.000913	0.0104	0.289888	1358	1358	1358	0	0	1	-360	360	-31.0560	47.9875	31.0985	-78.5199	0.0000	0.0000	0.0000	0.0000;
	123	121	0.003119	0.035631	0.991072	831	831	831	0	0	1	-360	360	228.8968	-58.8988	-227.3776	-30.2082	0.0000	0.0000	0.0000	0.0000;
	115	128	0.000919	0.010512	0.292928	1358	1358	1358	0	0	1	-360	360	-149.3383	24.3130	149.5447	-53.0295	0.0000	0.0000	0.0000	0.0000;
	174	156	0.01545	0.073349	0.126614	461	461	461	0	0	1	-360	360	-272.6109	-13.9214	283.4953	51.3780	0.0000	0.0000	0.0000	0.0000;
	175	155	0.01545	0.073349	0.126614	461	461	461	0	0	1	-360	360	-300.1185	-2.4118	313.3034	50.7900	0.0000	0.0000	0.0000	0.0000;
	177	155	0.01457	0.07955	0.14007	362	362	362	0	0	1	-360	360	-145.0619	-15.5188	147.7988	14.2596	0.0000	0.0000	0.0000	0.0000;
	178	156	0.01457	0.07955	0.14007	362	362	362	0	0	1	-360	360	-117.2539	-23.1603	119.0672	16.8583	0.0000	0.0000	0.0000	0.0000;
	177	144	0.006031	0.04401	0.069793	373	373	373	0	0	1	-360	360	42.7586	-21.4057	-42.6440	14.3645	0.0000	0.0000	0.0000	0.0000;
	166	140	0.011031	0.08057	0.124127	446	446	446	0	0	1	-360	360	207.6981	5.3347	-203.6845	9.4702	0.0000	0.0000	0.0000	0.0000;
	137	155	0.005831	0.04231	0.070664	427	427	427	0	0	1	-360	360	-210.5534	-38.6685	212.9056	47.5427	0.0000	0.0000	0.0000	0.0000;
	171	174	0.01849	0.095599	0.159139	305	305	305	0	0	1	-360	360	-82.0770	54.0316	83.8196	-62.4681	0.0000	0.0000	0.0000	0.0000;
	152	175	0.010581	0.053	0.088475	415	415	415	0	0	1	-360	360	-127.2031	44.2290	129.0309	-44.5021	0.0000	0.0000	0.0000	0.0000;
	154	156	0.012521	0.091359	0.145394	457	457	457	0	0	1	-360	360	-272.6385	17.8717	281.0850	27.0233	0.0000	0.0000	0.0000	0.0000;
	136	137	0.00506	0.036539	0.063598	305	305	305	0	0	1	-360	360	-102.0428	-12.1351	102.5205	8.4620	0.0000	0.0000	0.0000	0.0000;
	148	143	0.01043	0.077891	0.122065	427	427	427	0	0	1	-360	360	-19.8362	13.1739	19.9073	-27.0033	0.0000	0.0000	0.0000	0.0000;
	153	181	0.007711	0.056961	0.088378	373	373	373	0	0	1	-360	360	-20.7160	52.6901	20.9759	-60.3242	0.0000	0.0000	0.0000	0.0000;
	171	147	0.018599	0.09638	0.140941	290	290	290	0	0	1	-360	360	-189.4097	17.9734	195.3890	-3.3752	0.0000	0.0000	0.0000	0.0000;
	176	170	0.00244	0.01318	0.021296	377	377	377	0	0	1	-360	360	-82.3976	-3.0094	82.5440	1.3831	0.0000	0.0000	0.0000	0.0000;
	170	140	0.00355	0.02593	0.041237	446	446	446	0	0	1	-360	360	-78.8096	-11.3934	79.0061	8.1171	0.0000	0.0000	0.0000	0.0000;
	171	168	0.01312	0.076219	0.116644	362	362	362	0	0	1	-360	360	103.6731	-22.0190	-102.4055	16.1091	0.0000	0.0000	0.0000	0.0000;
	170	152	0.009341	0.05225	0.087701	305	305	305	0	0	1	-360	360	-19.1965	58.3671	19.5564	-66.0567	0.0000	0.0000	0.0000	0.0000;
	146	135	0.006141	0.032521	0.052456	385	385	385	0	0	1	-360	360	-178.3185	40.2135	180.0587	-37.2232	0.0000	0.0000	0.0000	0.0000;
	147	134	0.00438	0.03188	0.050723	457	457	457	0	0	1	-360	360	-186.8192	31.9427	188.1507	-28.2718	0.0000	0.0000	0.0000	0.0000;
	165	147	0.000479	0.00331	0.005711	446	446	446	0	0	1	-360	360	-53.8079	32.0946	53.8238	-32.6639	0.0000	0.0000	0.0000	0.0000;
	166	146	0.000479	0.00331	0.005711	446	446	446	0	0	1	-360	360	-72.4427	36.2645	72.4692	-36.7604	0.0000	0.0000	0.0000	0.0000;
	154	143	0.010539	0.076859	0.122355	373	373	373	0	0	1	-360	360	116.3497	-50.4526	-114.8859	47.2115	0.0000	0.0000	0.0000	0.0000;
...